co3/slc4a7_with_na_and_co3_hetb.pdb
 OpenBabel04232409023D

  4  3  0  0  0  0  0  0  0  0999 V2000
  149.6000  143.0760  133.3560 C   0  0  0  0  0  0  0  0  0  0  0  0
  150.0970  142.9410  132.1650 O   0  0  0  0  0  0  0  0  0  0  0  0
  149.7740  144.1850  134.0070 O   0  0  0  0  0  0  0  0  0  0  0  0
  148.9300  142.0990  133.8920 O   0  0  0  0  0  0  0  0  0  0  0  0
  1  4  1  0  0  0  0
  1  3  1  0  0  0  0
  2  1  2  0  0  0  0
M  END
